%nproc=1
%mem=1gb
#p b3lyp/cc-pvdz scrf=read out=wfn

title

0 1
O     0.00000    0.00000    2.00000

-O -H
TZVP
**** 
-Ce 0
SDD
****

-Ce 0
SDD

eps=1.0
epsinf=1.0
ExtraSph=3

    0.00000    0.00000    0.00000     1.44300
    0.00000    0.00000    1.00000     1.75000
    0.00000    0.00000    3.00000     1.44300

D:\xxx\yyy\frag1.wfn

